Circuit: * C:\Users\HPz420\Documents\GitHub\R32V2020\VHDL\Components\SoundGen\Documentation\SPICE_Simulations\Cap_Edge_Soften.asc

.OP point found by inspection.

Date: Fri Aug 09 13:59:28 2019
Total elapsed time: 0.092 seconds.

tnom = 27
temp = 27
method = modified trap
totiter = 6500
traniter = 6500
tranpoints = 3251
accept = 2907
rejected = 344
matrix size = 3
fillins = 0
solver = Normal
Matrix Compiler1: 50 bytes object code size  0.0/0.1/[0.0]
Matrix Compiler2: 175 bytes object code size  0.1/0.1/[0.0]

